# _____                              _______________________________
# ____/ TELEMAC Project Definitions /______________________________/
#
# DEPRECATED for TELEMAC v9.1.x and newer.
#
# Starting with v9.1, TELEMAC builds with CMake (driven by build_telemac.py)
# instead of the legacy `config.py` + `compile_telemac.py` flow that consumed
# this systel.cfg. The build no longer reads a hand-written systel.cfg; CMake
# GENERATES a minimal one inside the build directory (BUILD_DIR/systel.cfg),
# which the runtime tools (config.py, telemac2d.py, ...) then read.
#
# As a result, dependencies are now located by CMake's find modules rather than
# by the [general] include/library flags below:
#   * MPI / METIS / MUMPS  -> found automatically in /usr (system packages)
#   * MED                  -> found via the MED_ROOT prefix; on Ubuntu/Mint the
#                             system libmed-dev omits med_parameter.hf, so the
#                             installer assembles a private prefix under
#                             <HOMETEL>/configs/med_root (system MED headers +
#                             libmed + the borrowed med_parameter.hf).
#   * HDF5                 -> pulled in transitively by libmed (OpenMPI build),
#                             so there is no serial-vs-openmpi ABI clash.
#
# Build/run on Linux Mint 22 / Ubuntu 24.04:
#   source configs/pysource.mint22.sh   # sets HOMETEL, BUILD_DIR, MED_ROOT, ...
#   build_telemac.py --deps mpi mumps med -j "$(nproc)"
#   config.py                           # shows root, build dir and built modules
#
# The block below is kept ONLY for reference / older TELEMAC versions (<= 9.0)
# and is NOT used by the v9.1.x CMake build.
#
[Configurations]
configs: hyinfompiubu
#
[general]
language: 2
modules:  system stbtel telemac2d telemac3d tomawac artemis gaia nestor khione waqtel postel3d hermes special
version:  9.1
options:  mpi dyn med
hash_char: #
sfx_zip:  .tar.gz
sfx_lib:  .a
sfx_obj:  .o
sfx_exe:
sfx_mod:  .mod
val_root:      <root>/examples
val_rank:      all
cc:      mpicc
cflags:  -fPIC -O3 -DHAVE_MED
fc:      mpifort
fflags:  -cpp -O3 -fPIC -fconvert=big-endian -frecord-marker=4 -DHAVE_MPI -DHAVE_MED
cmd_obj_c: [cc] [cflags] -c <srcName> -o <objName>
cmd_obj:   [fc] [fflags] -c <mods> <incs> <f95name>
cmd_lib:   ar crs <libname> <objs>
cmd_exe:   [fc] [fflags] -o <exename> <objs> <libs>
par_cmdexec:   <config>/partel < <partel.par> >> <partel.log>
mpi_cmdexec:   mpirun -np <ncsize> <exename>
inc_mpi:       -I /usr/lib/x86_64-linux-gnu/openmpi/include
inc_hdf5:  -I /usr/include/hdf5/openmpi
libs_hdf5: -L /usr/lib/x86_64-linux-gnu/hdf5/openmpi -lhdf5_fortran -lhdf5hl_fortran -lhdf5_hl -lhdf5
inc_med:       -I <root>/configs/med_include -I /usr/include
libs_med:      -L /usr/lib/x86_64-linux-gnu -lmedC -lmed -lmedimport
inc_metis:     -I /usr/include
libs_metis:    -L /usr/lib/x86_64-linux-gnu -lmetis
inc_mumps:     -I /usr/include
libs_mumps:    -L /usr/lib/x86_64-linux-gnu -ldmumps -lmumps_common -lpord -lscalapack-openmpi -lblas -llapack
incs_all: [inc_mpi] [inc_hdf5] [inc_med] [inc_metis] [inc_mumps]
libs_all: [libs_med] [libs_hdf5] [libs_metis] [libs_mumps]
[hyinfompiubu]
brief: (DEPRECATED, v9.0 only) Linux Mint 22 / Ubuntu 24.04 gfortran + OpenMPI + HDF5 + METIS + MUMPS/ScaLAPACK + MED
system: linux
mpi:   openmpi
compiler: gfortran
pyd_fcompiler: gnu95
f2py_name: f2py
bin_dir: <root>/builds/hyinfompiubu/bin
lib_dir: <root>/builds/hyinfompiubu/lib
obj_dir: <root>/builds/hyinfompiubu/obj
options: mpi dyn med
mods_all:  -I <config>
incs_all:  [inc_mpi] [inc_hdf5] [inc_med] [inc_metis] [inc_mumps]
libs_all:  [libs_med] [libs_hdf5] [libs_metis] [libs_mumps]
